Version 4
SHEET 1 1176 680
WIRE -1936 -672 -2048 -672
WIRE -1664 -672 -1936 -672
WIRE -1616 -672 -1664 -672
WIRE -1088 -672 -1536 -672
WIRE -928 -672 -1088 -672
WIRE -784 -672 -928 -672
WIRE -656 -672 -784 -672
WIRE -1088 -656 -1088 -672
WIRE -2048 -624 -2048 -672
WIRE -1936 -624 -1936 -672
WIRE -1664 -624 -1664 -672
WIRE -656 -624 -656 -672
WIRE -784 -576 -784 -672
WIRE -1088 -560 -1088 -576
WIRE -928 -544 -928 -672
WIRE -656 -528 -656 -560
WIRE -2048 -512 -2048 -544
WIRE -1936 -512 -1936 -560
WIRE -1936 -512 -2048 -512
WIRE -1664 -512 -1664 -560
WIRE -2048 -480 -2048 -512
WIRE -1088 -464 -1088 -480
WIRE -784 -416 -784 -496
WIRE -720 -416 -784 -416
WIRE -592 -416 -656 -416
WIRE -544 -416 -592 -416
WIRE -416 -416 -464 -416
WIRE -272 -416 -416 -416
WIRE -1520 -400 -1664 -400
WIRE -1472 -400 -1520 -400
WIRE -1360 -400 -1408 -400
WIRE -1216 -400 -1360 -400
WIRE -1136 -400 -1216 -400
WIRE -272 -384 -272 -416
WIRE -784 -368 -784 -416
WIRE -592 -368 -592 -416
WIRE -416 -368 -416 -416
WIRE -1664 -352 -1664 -400
WIRE -1216 -352 -1216 -400
WIRE -1088 -320 -1088 -368
WIRE -1040 -320 -1088 -320
WIRE -928 -320 -928 -464
WIRE -928 -320 -976 -320
WIRE -848 -320 -928 -320
WIRE -1520 -288 -1520 -400
WIRE -1360 -272 -1360 -400
WIRE -592 -256 -592 -304
WIRE -416 -256 -416 -304
WIRE -272 -256 -272 -304
WIRE -1888 -224 -1968 -224
WIRE -1664 -224 -1664 -288
WIRE -1664 -224 -1808 -224
WIRE -1216 -224 -1216 -288
WIRE -1088 -224 -1088 -320
WIRE -1088 -224 -1216 -224
WIRE -1968 -192 -1968 -224
WIRE -1664 -192 -1664 -224
WIRE -1088 -192 -1088 -224
WIRE -1216 -176 -1216 -224
WIRE -784 -176 -784 -272
WIRE -1664 -64 -1664 -128
WIRE -1520 -64 -1520 -208
WIRE -1520 -64 -1664 -64
WIRE -1360 -64 -1360 -192
WIRE -1360 -64 -1520 -64
WIRE -1216 -64 -1216 -112
WIRE -1216 -64 -1360 -64
WIRE -1088 -64 -1088 -112
WIRE -1088 -64 -1216 -64
WIRE -1968 -48 -1968 -112
WIRE -1216 0 -1216 -64
FLAG -1216 0 0
FLAG -2048 -480 0
FLAG -1664 -512 0
FLAG -1968 -48 0
FLAG -784 -176 0
FLAG -592 -256 0
FLAG -416 -256 0
FLAG -272 -256 0
FLAG -656 -528 0
SYMBOL cap -1232 -352 R0
SYMATTR InstName C1
SYMATTR Value 22p
SYMBOL cap -1232 -176 R0
SYMATTR InstName C2
SYMATTR Value 100p
SYMBOL res -1104 -208 R0
SYMATTR InstName R1
SYMATTR Value 560
SYMBOL Misc\\battery -2048 -640 R0
SYMATTR InstName V1
SYMATTR Value 9V
SYMBOL ind2 -1504 -192 R180
WINDOW 0 -31 77 Left 2
WINDOW 3 -45 51 Left 2
SYMATTR InstName L2
SYMATTR Value 1.4µ
SYMATTR SpiceLine Rser=9
SYMBOL njf -1136 -464 R0
SYMATTR InstName J1
SYMATTR Value 2N3819
SYMBOL res -1376 -288 R0
SYMATTR InstName R2
SYMATTR Value 1Meg
SYMBOL res -1104 -672 R0
SYMATTR InstName POT1
SYMATTR Value 100
SYMBOL cap -1472 -384 R270
WINDOW 0 32 32 VTop 2
WINDOW 3 0 32 VBottom 2
SYMATTR InstName C3
SYMATTR Value 100p
SYMBOL cap -1040 -304 R270
WINDOW 0 32 32 VTop 2
WINDOW 3 0 32 VBottom 2
SYMATTR InstName C4
SYMATTR Value 1n
SYMBOL varactor -1648 -128 R180
WINDOW 0 24 64 Left 2
WINDOW 3 -85 -1 Left 2
SYMATTR InstName D2
SYMATTR Value KV1471
SYMATTR Type diode
SYMBOL cap -1680 -624 R0
SYMATTR InstName C6
SYMATTR Value 470n
SYMBOL res -1632 -656 R270
WINDOW 0 32 56 VTop 2
WINDOW 3 0 56 VBottom 2
SYMATTR InstName R10
SYMATTR Value 47
SYMBOL polcap -1952 -624 R0
SYMATTR InstName C7
SYMATTR Value 47µ
SYMBOL res -1792 -240 R90
WINDOW 0 0 56 VBottom 2
WINDOW 3 32 56 VTop 2
SYMATTR InstName R3
SYMATTR Value 22k
SYMBOL ind -1104 -576 R0
SYMATTR InstName L1
SYMATTR Value 3.3µ
SYMBOL cap -1680 -352 R0
SYMATTR InstName C8
SYMATTR Value 10p
SYMBOL Misc\\battery -1968 -208 R0
SYMATTR InstName V2
SYMATTR Value 0V
SYMBOL cap -576 -304 R180
WINDOW 0 -40 56 Left 2
WINDOW 3 -54 13 Left 2
SYMATTR InstName C9
SYMATTR Value 100p
SYMBOL cap -400 -304 R180
WINDOW 0 -35 55 Left 2
WINDOW 3 -49 12 Left 2
SYMATTR InstName C10
SYMATTR Value 330p
SYMBOL ind -560 -400 R270
WINDOW 0 32 56 VTop 2
WINDOW 3 5 56 VBottom 2
SYMATTR InstName L3
SYMATTR Value 430n
SYMATTR SpiceLine Rser=1m
SYMBOL res -288 -400 R0
SYMATTR InstName Rant
SYMATTR Value 36
SYMBOL ind -800 -592 R0
SYMATTR InstName L4
SYMATTR Value 2.7µ
SYMATTR SpiceLine Rser=10m
SYMBOL cap -656 -432 R90
WINDOW 0 0 32 VBottom 2
WINDOW 3 32 32 VTop 2
SYMATTR InstName C11
SYMATTR Value 100n
SYMBOL npn -848 -368 R0
SYMATTR InstName Q2
SYMATTR Value BC107
SYMBOL res -944 -560 R0
SYMATTR InstName R4
SYMATTR Value 47k
SYMBOL cap -672 -624 R0
SYMATTR InstName C12
SYMATTR Value 22n
TEXT -1464 192 Left 2 !.tran 0 0.12m 0.1m startup
TEXT -1472 240 Left 2 !.model BF245A NJF(VTO=-1.7372 BETA=1.16621m BETATCE=-0.5 LAMBDA=1.77211E-2 RD=9.01678 RS=9.01678 CGS=2.20000p CGD=2.20000p PB=7.80988E-1 IS=2.91797E-16 XTI=3 AF=1 FC=0.5 N=1 NR=2 MFG=PHILIPS)
TEXT -1480 280 Left 2 !.MODEL BB835 D(IS=115.11f RS=0.07705 N=1.22 XTI=1 EG=1.11 CJo=13.9P M=1.407 Vj=2.85 FC=0.5 BV=30 IBV=5u TT=80N)
TEXT -248 -392 Left 2 ;27MHz lambda / 4
TEXT -1456 328 Left 2 !.model BC107 NPN(Is=40.72f Vaf=21.03 Bf=407 Ise=40.72f Ne=1.305 Ikf=1 Xtb=1.5 Isc=594.8p Nc=2.033 Ikr=3.726 Rc=1.393 Cjc=6p Mjc=.3821 Cje=12.5p Mje=.4869 Vje=.5391 Tr=114n Tf=441.1p )
